# generated using pymatgen
data_H2O
_symmetry_space_group_name_H-M   'P 1'
_cell_length_a   4.32660432
_cell_length_b   7.52601076
_cell_length_c   7.06770668
_cell_angle_alpha   90.00000000
_cell_angle_beta   90.00000000
_cell_angle_gamma   90.00000000
_symmetry_Int_Tables_number   1
_chemical_formula_structural   H2O
_chemical_formula_sum   'H16 O8'
_cell_volume   230.13916436
_cell_formula_units_Z   8
loop_
 _symmetry_equiv_pos_site_id
 _symmetry_equiv_pos_as_xyz
  1  'x, y, z'
loop_
 _atom_type_symbol
 _atom_type_oxidation_number
  H+  1.0
  O2-  -2.0
loop_
 _atom_site_type_symbol
 _atom_site_label
 _atom_site_symmetry_multiplicity
 _atom_site_fract_x
 _atom_site_fract_y
 _atom_site_fract_z
 _atom_site_occupancy
  H+  H0  1  0.50000000  0.16396926  0.29929821  1
  H+  H1  1  0.00000000  0.33603074  0.79929821  1
  H+  H2  1  0.50000000  0.03953027  0.48354168  1
  H+  H3  1  0.00000000  0.46046973  0.98354168  1
  H+  H4  1  0.18499514  0.26787625  0.51708756  1
  H+  H5  1  0.81500486  0.26787625  0.51708756  1
  H+  H6  1  0.31500486  0.23212376  0.01708756  1
  H+  H7  1  0.68499515  0.23212376  0.01708756  1
  H+  H8  1  0.00000000  0.66396926  0.29929821  1
  H+  H9  1  0.50000000  0.83603074  0.79929821  1
  H+  H10  1  0.00000000  0.53953027  0.48354168  1
  H+  H11  1  0.50000000  0.96046973  0.98354168  1
  H+  H12  1  0.68499515  0.76787625  0.51708756  1
  H+  H13  1  0.31500486  0.76787625  0.51708756  1
  H+  H14  1  0.81500486  0.73212375  0.01708756  1
  H+  H15  1  0.18499515  0.73212375  0.01708756  1
  O2-  O16  1  0.50000000  0.16533729  0.44018801  1
  O2-  O17  1  0.00000000  0.33466271  0.94018801  1
  O2-  O18  1  0.00000000  0.33248137  0.56479997  1
  O2-  O19  1  0.50000000  0.16751863  0.06479997  1
  O2-  O20  1  0.00000000  0.66533729  0.44018801  1
  O2-  O21  1  0.50000000  0.83466271  0.94018801  1
  O2-  O22  1  0.50000000  0.83248137  0.56479997  1
  O2-  O23  1  0.00000000  0.66751863  0.06479997  1
