
data_
_chemical_name_mineral ?Na3SbS4-8H2O?
_cell_length_a 8.7460(9)
_cell_length_b 13.1683(14)
_cell_length_c 13.9058(14)
_cell_angle_alpha 90
_cell_angle_beta 103.283(9)
_cell_angle_gamma 90
_cell_volume 1558.7(3)
_symmetry_space_group_name_H-M P121/c1
loop_
	_symmetry_equiv_pos_as_xyz
	 'x, y, z '
	 '-x, y+1/2, -z+1/2 '
	 'x, -y+1/2, z+1/2 '
	 '-x, -y, -z '
loop_
_atom_site_label
_atom_site_type_symbol
_atom_site_symmetry_multiplicity
_atom_site_fract_x
_atom_site_fract_y
_atom_site_fract_z
_atom_site_occupancy
_atom_site_B_iso_or_equiv
Na2 Na   2 0.5 0 0.5 1 1
Na1 Na   2 0 0 0 1 1
Na4 Na   4 0.171(3) 0.566(2) 0.085(3) 1 1
Na3 Na   4 0.657(3) 0.0468(19) 0.084(2) 1 1
Sb Sb   4 0.2821(6) 0.1696(4) 0.2501(5) 1 1.72(17)
S1 S   4 0.207(2) -0.0004(11) 0.2087(12) 1 -0.0(4)
S2 S   4 0.4048(19) 0.1882(18) 0.4243(13) 1 3.8(6)
S3 S   4 0.4686(18) 0.2118(13) 0.1597(11) 1 -0.1(4)
S4 S   4 0.075(2) 0.2811(13) 0.2178(13) 1 2.3(6)
O8 O   4 0.09119 0.38977 0.00086 1 1
O6 O   4 0.14605 0.51933 0.25085 1 1
O2 O   4 0.14888 0.65019 0.46627 1 1
O1 O   4 0.19527 0.39663 0.45914 1 1
O7 O   4 0.21189 0.73432 0.14901 1 1
O4 O   4 0.409 0.46034 0.14536 1 1
O5 O   4 0.53093 0.42688 0.41086 1 1
O3 O   4 0.73931 0.40236 0.0655 1 1
H61 H   4 0.04674 0.53486 0.26699 1 1
H21 H   4 0.07532 0.69039 0.41803 1 1
H82 H   4 0.09599 0.35007 0.06061 1 1
H72 H   4 0.13807 0.74534 0.19042 1 1
H62 H   4 0.14681 0.44537 0.25194 1 1
H81 H   4 0.16799 0.13989 0.46881 1 1
H22 H   4 0.17391 0.80938 0.10266 1 1
H11 H   4 0.17667 0.34779 0.40505 1 1
H12 H   4 0.25892 0.14099 0.10143 1 1
H42 H   4 0.41115 0.38639 0.14621 1 1
H41 H   4 0.50208 0.47942 0.19492 1 1
H52 H   4 0.49548 0.35749 0.39513 1 1
H51 H   4 0.60649 0.44308 0.37192 1 1
H71 H   4 0.68646 0.23245 0.3048 1 1
H32 H   4 0.71145 0.33204 0.07472 1 1
H31 H   4 0.77352 0.43011 0.13195 1 1