# generated using pymatgen
data_Na3SbS4
_symmetry_space_group_name_H-M   'P 1'
_cell_length_a   7.16699642
_cell_length_b   7.16699642
_cell_length_c   7.16699642
_cell_angle_alpha   90.00000000
_cell_angle_beta   90.00000000
_cell_angle_gamma   90.00000000
_symmetry_Int_Tables_number   1
_chemical_formula_structural   Na3SbS4
_chemical_formula_sum   'Na6 Sb2 S8'
_cell_volume   368.13877446
_cell_formula_units_Z   2
loop_
 _symmetry_equiv_pos_site_id
 _symmetry_equiv_pos_as_xyz
  1  'x, y, z'
loop_
 _atom_type_symbol
 _atom_type_oxidation_number
  Na+  1.0
  Sb5+  5.0
  S2-  -2.0
loop_
 _atom_site_type_symbol
 _atom_site_label
 _atom_site_symmetry_multiplicity
 _atom_site_fract_x
 _atom_site_fract_y
 _atom_site_fract_z
 _atom_site_occupancy
  Na+  Na0  1  0.00000000  0.00000000  0.50000000  1
  Na+  Na1  1  0.00000000  0.50000000  0.00000000  1
  Na+  Na2  1  0.50000000  0.00000000  0.00000000  1
  Na+  Na3  1  0.50000000  0.50000000  0.00000000  1
  Na+  Na4  1  0.50000000  0.00000000  0.50000000  1
  Na+  Na5  1  0.00000000  0.50000000  0.50000000  1
  Sb5+  Sb6  1  0.00000000  0.00000000  0.00000000  1
  Sb5+  Sb7  1  0.50000000  0.50000000  0.50000000  1
  S2-  S8  1  0.31094265  0.31094265  0.31094265  1
  S2-  S9  1  0.18905735  0.18905735  0.81094265  1
  S2-  S10  1  0.81094265  0.18905735  0.18905735  1
  S2-  S11  1  0.18905735  0.81094265  0.18905735  1
  S2-  S12  1  0.81094265  0.81094265  0.81094265  1
  S2-  S13  1  0.68905736  0.68905736  0.31094264  1
  S2-  S14  1  0.31094264  0.68905736  0.68905736  1
  S2-  S15  1  0.68905736  0.31094264  0.68905736  1
