LAMMPS (2 Aug 2023 - Update 2)
units           real
atom_style      full
dimension 3
boundary        p p p

read_data       ../model_solvation/sol_N10_1.data
Reading data file ...
  orthogonal box = (0.167499 0.000499 0.000499) to (22.4475 35.0955 35.0955)
  reading atoms ...
  1196 atoms
  scanning bonds ...
  scanning angles ...
  reading bonds ...
  1345 bonds
  reading angles ...
  1110 angles
Finding 1-2 1-3 1-4 neighbors ...
     6 = max # of 1-2 neighbors
    15 = max # of 1-3 neighbors
    72 = max # of 1-4 neighbors
    30 = max # of special neighbors

# Define groups
group mos2  type 6 7 14 15 16 17     # MoS2 backbone
420 atoms in group mos2
group water type 4 5 9     # 4 and 5 are H1 and H2 atoms, 9 is O atom
720 atoms in group water
group hcro  type 2 3 10 11 12 13     # HCRO4- ions
30 atoms in group hcro
group slvn  type 1 2 3 8 10 11 12  13 # solvent
56 atoms in group slvn
group sol   type 1 2 3 4 5 8 9 10 11 12  13 # solvent and solution
776 atoms in group sol
group dmp   type 1 2 3 6 7 8 10 11 12 13 14 15 16 17 # all without water
476 atoms in group dmp

# Pair style and kspace
pair_style      lj/cut/coul/long 10.0
special_bonds lj 0.0 0.0 0.5 coul 0.0 0.0 0.83333333
Finding 1-2 1-3 1-4 neighbors ...
     6 = max # of 1-2 neighbors
    15 = max # of 1-3 neighbors
    72 = max # of 1-4 neighbors
    30 = max # of special neighbors
pair_modify     mix arithmetic
kspace_style    pppm 1.0e-4
#kspace_style ewald 1e-8

# Pair Coeff
pair_coeff 1 1     0.070   3.5600000   # Cl-Cl
pair_coeff 2 2     0.050   2.5000000   # CR-CR
pair_coeff 3 3     0.001   1.0000000   # H-H
pair_coeff 4 4     0.0     0.0         # H1-H1
pair_coeff 5 5     0.0     0.0         # H2-H2
pair_coeff 6 6     0.0134  4.2000000   # Mo1-Mo1
pair_coeff 7 7     0.0134  4.2000000   # Mo2-Mo2
pair_coeff 8 8     0.0469  2.4300000   # Na-Na
pair_coeff 9 9     0.1521  3.1507      # OW-OW
pair_coeff 10 10   0.1000  3.0000000   # O1-O1
pair_coeff 11 11   0.1000  3.0000000   # O2-O2
pair_coeff 12 12   0.1000  3.0000000   # O3-O3
pair_coeff 13 13   0.1000  3.0000000   # O4-O4
pair_coeff 14 14   0.4610  3.1300000   # S1-S1
pair_coeff 15 15   0.4610  3.1300000   # S2-S2
pair_coeff 16 16   0.4610  3.1300000   # S3-S3
pair_coeff 17 17   0.4610  3.1300000   # S4-S4

bond_style harmonic
bond_coeff 1 650 2.4127                # Mo-S bond
bond_coeff 2 650 1.600                 # CR-O bond in HCRO4
bond_coeff 3 450 0.600                 # O-H bond  in HCRO4
bond_coeff 4 450 0.957                 # O-H bond  in water

angle_style     harmonic
angle_coeff 1 100 82.38                # Mo-S-Mo angle in MoS2
angle_coeff 2 55 104.52                # O-CR-O angle in HCRO4
angle_coeff 3 80 109.50                # H-O-H angle in water

## Minimize the system first
velocity all create 300.0 12345 dist gaussian mom yes rot yes
min_style cg
minimize 1.0e-4 1.0e-6 1000 10000
PPPM initialization ...
  G vector (1/distance) = 0.2571481
  grid = 12 16 16
  stencil order = 5
  estimated absolute RMS force accuracy = 0.028448941
  estimated relative force accuracy = 8.5673142e-05
  3d grid and FFT values/proc = 1053 96
Generated 136 of 136 mixed pair_coeff terms from arithmetic mixing rule
Step          Temp          E_pair         E_mol          TotEng         Press
0   300            1.3126792e+13  648.90202      1.3126792e+13  1.3120097e+14
Loop time of 3.47595 on 32 procs for 304 steps with 1196 atoms

Minimization stats:
  Stopping criterion = energy tolerance
  Energy initial, next-to-last, final =
  Force two-norm initial, final = 6.8889864e+14 67.275142
  Force max component initial, final = 3.0247017e+14 22.303684
  Final line search alpha, max atom move = 0.0020699956 0.046168528
  Iterations, force evaluations = 304 541

# *************** Setting ******************************
# Neighbor settings
neigh_modify delay 0 every 1 check yes
#neigh_modify    delay 5 every 1

# Define SHAKE constraints for water (O-H bonds and H-O-H angle)
fix spce_model water shake 0.0001 20 0 b 4 a 2
Finding SHAKE clusters ...
       0 = # of size 2 clusters
     240 = # of size 3 clusters
       0 = # of size 4 clusters
       0 = # of frozen angles
  find clusters CPU = 0.001 seconds

# Fix MoS2 as rigid (zero force and velocity)
fix mos_hold mos2 setforce 0.0 0.0 0.0
velocity mos2 set 0.0 0.0 0.0

### Setup for HCrO- transport in radial and axial directions
# Define acceleration/gravity field along x direction (unit kcal/g/A = 4.18*10^7 nm/ns^2)
fix 1 hcro gravity 0.3 vector 1 0 0
# Define force along radial direction (0.001 kcal/mol·e·Å)
# Tube center coordinates: Y=17.5, Z=17.5 (from box bounds)
variable ycenter equal 17.548
variable zcenter equal 17.548
variable r atom sqrt((y-17.548)^2+(z-17.548)^2)
variable fy atom 1.7*(y-17.548)/v_r
variable fz atom 1.7*(z-17.548)/v_r
fix radial_out hcro addforce 0 v_fy v_fz

# Set timestep
reset_timestep  0
timestep        1  # fs
fix fix_nvt sol nvt temp 300.0 300.0 200.0

# Thermostat output
thermo          1000
thermo_style    custom step temp etotal press
# dump every 1000fs = 1ps
dump d1 dmp custom 1000 dump.lammpstrj id type mol xu yu zu q

# Run for 5 ns (5,000,000 steps)
run 5000000
PPPM initialization ...
  G vector (1/distance) = 0.2571481
  grid = 12 16 16
  stencil order = 5
  estimated absolute RMS force accuracy = 0.028448941
  estimated relative force accuracy = 8.5673142e-05
  3d grid and FFT values/proc = 1053 96
Generated 136 of 136 mixed pair_coeff terms from arithmetic mixing rule
Step          Temp          TotEng         Press
0   227.54083     -18583.77      -3480.1727
Averages over the last 2501 of 5001 rows, steps 2500000 to 5000000:
Temp TotEng Press
178.345 -18080.1 182.54
Loop time of 6974.08 on 32 procs for 5000000 steps with 1196 atoms
