# generated using pymatgen
data_Na4SnS4
_symmetry_space_group_name_H-M   'P 1'
_cell_length_a   7.81961597
_cell_length_b   7.81961597
_cell_length_c   6.95621257
_cell_angle_alpha   90.00000000
_cell_angle_beta   90.00000000
_cell_angle_gamma   90.00000000
_symmetry_Int_Tables_number   1
_chemical_formula_structural   Na4SnS4
_chemical_formula_sum   'Na8 Sn2 S8'
_cell_volume   425.34731398
_cell_formula_units_Z   2
loop_
 _symmetry_equiv_pos_site_id
 _symmetry_equiv_pos_as_xyz
  1  'x, y, z'
loop_
 _atom_type_symbol
 _atom_type_oxidation_number
  Na+  1.0
  Sn4+  4.0
  S2-  -2.0
loop_
 _atom_site_type_symbol
 _atom_site_label
 _atom_site_symmetry_multiplicity
 _atom_site_fract_x
 _atom_site_fract_y
 _atom_site_fract_z
 _atom_site_occupancy
  Na+  Na0  1  0.19778108  0.40613544  0.03067456  1
  Na+  Na1  1  0.59386456  0.19778108  0.96932544  1
  Na+  Na2  1  0.40613544  0.80221892  0.96932544  1
  Na+  Na3  1  0.80221892  0.59386456  0.03067456  1
  Na+  Na4  1  0.69778108  0.09386456  0.46932544  1
  Na+  Na5  1  0.30221892  0.90613544  0.46932544  1
  Na+  Na6  1  0.90613544  0.69778108  0.53067456  1
  Na+  Na7  1  0.09386456  0.30221892  0.53067456  1
  Sn4+  Sn8  1  0.00000000  0.00000000  0.00000000  1
  Sn4+  Sn9  1  0.50000000  0.50000000  0.50000000  1
  S2-  S10  1  0.25996218  0.59293797  0.68965609  1
  S2-  S11  1  0.74003782  0.40706203  0.68965609  1
  S2-  S12  1  0.09293797  0.75996218  0.18965609  1
  S2-  S13  1  0.24003782  0.09293797  0.81034391  1
  S2-  S14  1  0.75996218  0.90706203  0.81034391  1
  S2-  S15  1  0.90706203  0.24003782  0.18965609  1
  S2-  S16  1  0.59293797  0.74003782  0.31034391  1
  S2-  S17  1  0.40706203  0.25996218  0.31034391  1
