# generated using pymatgen
data_Na6ZnS4
_symmetry_space_group_name_H-M   'P 1'
_cell_length_a   8.87344927
_cell_length_b   8.87344927
_cell_length_c   6.86111426
_cell_angle_alpha   90.00000000
_cell_angle_beta   90.00000000
_cell_angle_gamma   120.00000000
_symmetry_Int_Tables_number   1
_chemical_formula_structural   Na6ZnS4
_chemical_formula_sum   'Na12 Zn2 S8'
_cell_volume   467.85386913
_cell_formula_units_Z   2
loop_
 _symmetry_equiv_pos_site_id
 _symmetry_equiv_pos_as_xyz
  1  'x, y, z'
loop_
 _atom_type_symbol
 _atom_type_oxidation_number
  Na+  1.0
  Zn2+  2.0
  S2-  -2.0
loop_
 _atom_site_type_symbol
 _atom_site_label
 _atom_site_symmetry_multiplicity
 _atom_site_fract_x
 _atom_site_fract_y
 _atom_site_fract_z
 _atom_site_occupancy
  Na+  Na0  1  0.85224703  0.70449406  0.03841967  1
  Na+  Na1  1  0.14775297  0.85224703  0.53841967  1
  Na+  Na2  1  0.70449406  0.85224703  0.53841967  1
  Na+  Na3  1  0.29550594  0.14775297  0.03841967  1
  Na+  Na4  1  0.85224703  0.14775297  0.03841967  1
  Na+  Na5  1  0.14775297  0.29550594  0.53841967  1
  Na+  Na6  1  0.46951637  0.93903274  0.86570354  1
  Na+  Na7  1  0.53048363  0.46951637  0.36570354  1
  Na+  Na8  1  0.93903274  0.46951637  0.36570354  1
  Na+  Na9  1  0.06096726  0.53048363  0.86570354  1
  Na+  Na10  1  0.46951637  0.53048363  0.86570354  1
  Na+  Na11  1  0.53048363  0.06096726  0.36570354  1
  Zn2+  Zn12  1  0.33333333  0.66666667  0.24852101  1
  Zn2+  Zn13  1  0.66666667  0.33333333  0.74852101  1
  S2-  S14  1  0.18763538  0.37527075  0.14165819  1
  S2-  S15  1  0.81236463  0.18763538  0.64165819  1
  S2-  S16  1  0.66666667  0.33333333  0.09368600  1
  S2-  S17  1  0.33333333  0.66666667  0.59368600  1
  S2-  S18  1  0.81236463  0.62472925  0.64165819  1
  S2-  S19  1  0.18763538  0.81236463  0.14165819  1
  S2-  S20  1  0.62472925  0.81236463  0.14165819  1
  S2-  S21  1  0.37527075  0.18763538  0.64165819  1
