LAMMPS (2 Aug 2023 - Update 2)
units           real
atom_style      full
dimension 3
boundary        p p p

read_data       ../model_solvation/sol_N10.data
Reading data file ...
  orthogonal box = (-0.2285 0.000499 0.000499) to (22.051501 35.0955 35.0955)
  reading atoms ...
  1168 atoms
  scanning bonds ...
  scanning angles ...
  reading bonds ...
  1325 bonds
  reading angles ...
  1086 angles
Finding 1-2 1-3 1-4 neighbors ...
     6 = max # of 1-2 neighbors
    15 = max # of 1-3 neighbors
    72 = max # of 1-4 neighbors
    30 = max # of special neighbors

# Define groups
group water type 4 5 9     # 4 and 5 are H1 and H2 atoms, 9 is O atom
720 atoms in group water
group mos2  type 6 7 14 15 16 17     # MoS2 backbone
420 atoms in group mos2
group hcro  type 2 3 10 11 12 13     # HCrO4 ions
6 atoms in group hcro
group sol   type 1 2 3 4 5 8 9 10 11 12  13 # solvent and solution
748 atoms in group sol

# Pair style and kspace
pair_style      lj/cut/coul/long 10.0
special_bonds lj 0.0 0.0 0.5 coul 0.0 0.0 0.83333333
Finding 1-2 1-3 1-4 neighbors ...
     6 = max # of 1-2 neighbors
    15 = max # of 1-3 neighbors
    72 = max # of 1-4 neighbors
    30 = max # of special neighbors
pair_modify     mix arithmetic
#kspace_style    pppm 1.0e-4
kspace_style ewald 1e-8

# Pair Coeff
pair_coeff 1 1     0.070   3.5600000   # Cl-Cl
pair_coeff 2 2     0.050   2.5000000   # CR-CR
pair_coeff 3 3     0.001   1.0000000   # H-H
pair_coeff 4 4     0.0     0.0         # H1-H1
pair_coeff 5 5     0.0     0.0         # H2-H2
pair_coeff 6 6     0.0134  4.2000000   # Mo1-Mo1
pair_coeff 7 7     0.0134  4.2000000   # Mo2-Mo2
pair_coeff 8 8     0.0469  2.4300000   # Na-Na
pair_coeff 9 9     0.1521  3.1507      # OW-OW
pair_coeff 10 10   0.1000  3.0000000   # O1-O1
pair_coeff 11 11   0.1000  3.0000000   # O2-O2
pair_coeff 12 12   0.1000  3.0000000   # O3-O3
pair_coeff 13 13   0.1000  3.0000000   # O4-O4
pair_coeff 14 14   0.4610  3.1300000   # S1-S1
pair_coeff 15 15   0.4610  3.1300000   # S2-S2
pair_coeff 16 16   0.4610  3.1300000   # S3-S3
pair_coeff 17 17   0.4610  3.1300000   # S4-S4

bond_style harmonic
bond_coeff 1 1000 2.4127               # Mo-S bond
bond_coeff 2 650 1.600                 # CR-O bond in HCRO4
bond_coeff 3 450 0.600                 # O-H bond  in HCRO4
bond_coeff 4 450 0.957                 # O-H bond  in water

angle_style     harmonic
angle_coeff 1 100 82.38                # Mo-S-Mo angle in MoS2
angle_coeff 2 55 104.52                # O-CR-O angle in HCRO4
angle_coeff 3 80 109.50                # H-O-H angle in water

## Minimize the system first
velocity all create 300.0 12345 dist gaussian mom yes rot yes
min_style cg
minimize 1.0e-4 1.0e-6 1000 10000
Ewald initialization ...
  G vector (1/distance) = 0.39098632
  estimated absolute RMS force accuracy = 1.3523009e-05
  estimated relative force accuracy = 4.0724139e-08
  KSpace vectors: actual max1d max3d = 6917 17 21437
                  kxmax kymax kzmax  = 11 17 17
Generated 136 of 136 mixed pair_coeff terms from arithmetic mixing rule
Step          Temp          E_pair         E_mol          TotEng         Press
0   300            2316274.5      638.83373      2317956.9      23380776
Loop time of 3.74688 on 32 procs for 225 steps with 1168 atoms

Minimization stats:
  Stopping criterion = energy tolerance
  Energy initial, next-to-last, final =
  Force two-norm initial, final = 16043502 85.378303
  Force max component initial, final = 6987230.2 22.57496
  Final line search alpha, max atom move = 0.0018739746 0.042304901
  Iterations, force evaluations = 225 400

# *************** Setting ******************************
# Neighbor settings
#neigh_modify delay 0 every 1 check yes
neigh_modify    delay 5 every 1

# Define SHAKE constraints for water (O-H bonds and H-O-H angle)
fix spce_model water shake 0.0001 20 0 b 4 a 2
Finding SHAKE clusters ...
       0 = # of size 2 clusters
     240 = # of size 3 clusters
       0 = # of size 4 clusters
       0 = # of frozen angles
  find clusters CPU = 0.005 seconds

# Fix MoS2 as rigid (zero force and velocity)
fix mos_hold mos2 setforce 0.0 0.0 0.0
velocity mos2 set 0.0 0.0 0.0

# Define electric field along x direction (0.001 kcal/mol·e·Å)
#fix fix_efield sol efield 0.001 0.0 0.0
# Define velocity field along x direction (0.00002A/fs=0.02A/ps=2nm/ns)
#velocity hcro set 0.0002 0.0 0.0 sum yes
# Define acceleration/gravity field along x direction (unit kcal/g/A = 4.18*10^7 nm/ns^2)
fix 1 sol gravity 0.04 vector 1 0 0

# Set timestep
reset_timestep  0
timestep        1  # fs
fix fix_nvt all nvt temp 300.0 300.0 100.0

# Thermostat output
thermo          100
thermo_style    custom step temp etotal press
# dump every 100fs = 0.1ps
dump d1 all custom 100 dump.lammpstrj id type mol x y z q

# Run for 5 ns (5,000,000 steps)
run 5000000
Ewald initialization ...
  G vector (1/distance) = 0.39098632
  estimated absolute RMS force accuracy = 1.3523009e-05
  estimated relative force accuracy = 4.0724139e-08
  KSpace vectors: actual max1d max3d = 6917 17 21437
                  kxmax kymax kzmax  = 11 17 17
Generated 136 of 136 mixed pair_coeff terms from arithmetic mixing rule
Step          Temp          TotEng         Press
0   224.87106     -16949.8        977.56701
Averages over the last 25001 of 50001 rows, steps 2500000 to 5000000:
Temp TotEng Press
300.148 -15794.4 1926.73
Loop time of 33760.8 on 32 procs for 5000000 steps with 1168 atoms
