LAMMPS (2 Aug 2023 - Update 2)
units           real
atom_style      full
dimension 3
boundary        p p p

read_data       model_solvation/sol_r20.data
Reading data file ...
  orthogonal box = (1e-06 1e-06 -0) to (50.000001 50.000001 22.33)
  reading atoms ...
  3824 atoms
  scanning bonds ...
  scanning angles ...
  reading bonds ...
  1936 bonds
  reading angles ...
  982 angles
Finding 1-2 1-3 1-4 neighbors ...
     4 = max # of 1-2 neighbors
     3 = max # of 1-3 neighbors
     4 = max # of 1-4 neighbors
     5 = max # of special neighbors

# Define groups
group water type 4 5 8      # 4 and 5 are H1 and H2 atoms, 8 is O atom
2874 atoms in group water
group mos2  type 6 13       # MoS2 backbone
840 atoms in group mos2
group sol   type 1 2 3 4 5 7 8 9 10 11 12  # solvent and solution
2984 atoms in group sol

# Pair style and kspace
pair_style      lj/cut/coul/long 10.0
special_bonds lj 0.0 0.0 0.5 coul 0.0 0.0 0.83333333
Finding 1-2 1-3 1-4 neighbors ...
     4 = max # of 1-2 neighbors
     3 = max # of 1-3 neighbors
     4 = max # of 1-4 neighbors
     5 = max # of special neighbors
pair_modify     mix arithmetic
#kspace_style    pppm 1.0e-4
kspace_style ewald 1e-8

# Pair Coeff
pair_coeff 1 1     0.070   3.5600000   # Cl-Cl
pair_coeff 2 2     0.050   2.5000000   # CR-CR
pair_coeff 3 3     0.001   1.0000000   # H-H
pair_coeff 4 4     0.0     0.0         # H1-H1
pair_coeff 5 5     0.0     0.0         # H2-H2
pair_coeff 6 6     0.0134  4.2000000   # Mo-Mo
pair_coeff 7 7     0.0469  2.4300000   # Na-Na
pair_coeff 8 8     0.1521  3.1507      # OW-OW
pair_coeff 9 9     0.1000  3.0000000   # O1-O1
pair_coeff 10 10   0.1000  3.0000000   # O2-O2
pair_coeff 11 11   0.1000  3.0000000   # O3-O3
pair_coeff 12 12   0.1000  3.0000000   # O4-O4
pair_coeff 13 13   0.4610  3.1300000   # S-S

bond_style harmonic
bond_coeff 1 650 1.600
bond_coeff 2 450 0.600
bond_coeff 3 450 0.957

angle_style     harmonic
angle_coeff 1 80 109.50
angle_coeff 2 55 104.52

## Minimize the system first
velocity all create 300.0 12345 dist gaussian mom yes rot yes
min_style cg
minimize 1.0e-4 1.0e-6 1000 10000
Ewald initialization ...
  G vector (1/distance) = 0.39451625
  estimated absolute RMS force accuracy = 1.7176048e-05
  estimated relative force accuracy = 5.1725158e-08
  KSpace vectors: actual max1d max3d = 17962 25 66325
                  kxmax kymax kzmax  = 25 25 12
Generated 78 of 78 mixed pair_coeff terms from arithmetic mixing rule
Step          Temp          E_pair         E_mol          TotEng         Press
0   300            5413549.7      0.79161607     5416969.1      26738563
Loop time of 17.1935 on 32 procs for 388 steps with 3824 atoms

Minimization stats:
  Stopping criterion = energy tolerance
  Energy initial, next-to-last, final =
  Force two-norm initial, final = 88588263 85.727929
  Force max component initial, final = 39971546 28.609253
  Final line search alpha, max atom move = 0.0031611373 0.090437777
  Iterations, force evaluations = 388 602

# *************** Setting ******************************
# Neighbor settings
#neigh_modify delay 0 every 1 check yes
neigh_modify    delay 5 every 1

# Define SHAKE constraints for water (O-H bonds and H-O-H angle)
fix spce_model water shake 0.0001 20 0 b 3 a 2
Finding SHAKE clusters ...
       0 = # of size 2 clusters
       0 = # of size 3 clusters
       0 = # of size 4 clusters
     958 = # of frozen angles
  find clusters CPU = 0.002 seconds

# Fix MoS2 as rigid (zero force and velocity)
fix mos_hold mos2 setforce 0.0 0.0 0.0
velocity mos2 set 0.0 0.0 0.0

# Define small electric field along z (0.001 kcal/mol·e·Å)
#fix fix_efield sol efield 0.0 0.0 0.001
velocity sol set 0.0 0.0 0.01 sum yes

# Set timestep
reset_timestep  0
timestep        1  # fs
fix fix_nvt sol nvt temp 300.0 300.0 100.0

# Thermostat output
thermo          100
thermo_style    custom step temp etotal press

dump d1 all custom 100 dump.lammpstrj id type mol x y z q

# Run for 5 ns (5,000,000 steps)
run 100000
Ewald initialization ...
  G vector (1/distance) = 0.39451625
  estimated absolute RMS force accuracy = 1.7176048e-05
  estimated relative force accuracy = 5.1725158e-08
  KSpace vectors: actual max1d max3d = 17962 25 66325
                  kxmax kymax kzmax  = 25 25 12
Generated 78 of 78 mixed pair_coeff terms from arithmetic mixing rule
Step          Temp          TotEng         Press
0   596.95444     -37130.842      8164.5565
Averages over the last 501 of 1001 rows, steps 50000 to 100000:
Temp TotEng Press
211.745 -37029.8 6331.66
Loop time of 2698.09 on 32 procs for 100000 steps with 3824 atoms
